Date:		08/19/93
Name:		UW ARCHIVE
MVA base:	100.0
Year:		1962
Season:		W
Case id:	IEEE 14 Bus Test Case
-------------------------------------------------
BUS DATA FOLLOWS
-------------------------------------------------
1	'Bus 001'	1	1	3	1.060	0	0.0 	0.0 	232.4	-16.9	0.0	1.060	0.0	0.0	0.0	0.0	0
2	'Bus 002'	1	1	2	1.045	-4.98	21.7	12.7	40.0	42.4 	0.0	1.045	50.0	-40.0	0.0	0.0	0
3	'Bus 003'	1	1	2	1.010	-12.72	94.2	19.0	0.0 	23.4 	0.0	1.010	40.0	0.0	0.0	0.0	0
4	'Bus 004'	1	1	0	1.019	-10.33	47.8	-3.9	0.0 	0.0  	0.0	0.0	0.0 	0.0	0.0	0.0	0
5	'Bus 005'	1	1	0	1.020	-8.78	7.6 	1.6 	0.0 	0.0  	0.0	0.0	0.0 	0.0	0.0	0.0	0
6	'Bus 006'	1	1	2	1.070	-14.22	11.2	7.5 	0.0 	12.2 	0.0	1.070	24.0	-6.0	0.0	0.0	0
7	'Bus 007'	1	1	0	1.062	-13.37	0.0 	0.0 	0.0 	0.0	0.0	0.0	0.0 	0.0	0.0	0.0	0
8	'Bus 008'	1	1	2	1.090	-13.36	0.0 	0.0 	0.0 	17.4	0.0	1.090	24.0	-6.0	0.0	0.0	0
9	'Bus 009'	1	1	0	1.056	-14.94	29.5	16.6	0.0 	0.0  	0.0	0.0	0.0 	0.0	0.0	0.19	0
10	'Bus 010'	1	1	0	1.051	-15.1	9.0 	5.8 	0.0 	0.0  	0.0	0.0	0.0 	0.0	0.0	0.0	0
11	'Bus 011'	1	1	0	1.057	-14.79	3.5 	1.8 	0.0 	0.0  	0.0	0.0	0.0 	0.0	0.0	0.0	0
12	'Bus 012'	1	1	0	1.055	-15.07	6.1 	1.6 	0.0 	0.0  	0.0	0.0	0.0 	0.0	0.0	0.0	0
13	'Bus 013'	1	1	0	1.050	-15.16	13.5	5.8 	0.0 	0.0  	0.0	0.0	0.0 	0.0	0.0	0.0	0
14	'Bus 014'	1	1	0	1.036	-16.04	14.9	5.0 	0.0 	0.0  	0.0	0.0	0.0 	0.0	0.0	0.0	0
-999
-------------------------------------------------
BRANCH DATA FOLLOWS
-------------------------------------------------
1	2	1	1	1	0	0.01938	0.05917	0.0528	0	0	0	0	0	0.0	0.0	0.0	0.0	0.0	0.0	0.0
1	5	1	1	1	0	0.05403	0.22304	0.0492	0	0	0	0	0	0.0	0.0	0.0	0.0	0.0	0.0	0.0
2	3	1	1	1	0	0.04699	0.19797	0.0438	0	0	0	0	0	0.0	0.0	0.0	0.0	0.0	0.0	0.0
2	4	1	1	1	0	0.05811	0.17632	0.0340	0	0	0	0	0	0.0	0.0	0.0	0.0	0.0	0.0	0.0
2	5	1	1	1	0	0.05695	0.17388	0.0346	0	0	0	0	0	0.0	0.0	0.0	0.0	0.0	0.0	0.0
3	4	1	1	1	0	0.06701	0.17103	0.0128	0	0	0	0	0	0.0	0.0	0.0	0.0	0.0	0.0	0.0
4	5	1	1	1	0	0.01335	0.04211	0.0	0	0	0	0	0	0.0	0.0	0.0	0.0	0.0	0.0	0.0
4	7	1	1	1	0	0.0	0.20912	0.0	0	0	0	0	0	0.978	0.0	0.0	0.0	0.0	0.0	0.0
4	9	1	1	1	0	0.0	0.55618	0.0	0	0	0	0	0	0.969	0.0	0.0	0.0	0.0	0.0	0.0
5	6	1	1	1	0	0.0	0.25202	0.0	0	0	0	0	0	0.932	0.0	0.0	0.0	0.0	0.0	0.0
6	11	1	1	1	0	0.09498	0.19890	0.0	0	0	0	0	0	0.0	0.0	0.0	0.0	0.0	0.0	0.0
6	12	1	1	1	0	0.12291	0.25581	0.0	0	0	0	0	0	0.0	0.0	0.0	0.0	0.0	0.0	0.0
6	13	1	1	1	0	0.06615	0.13027	0.0	0	0	0	0	0	0.0	0.0	0.0	0.0	0.0	0.0	0.0
7	8	1	1	1	0	0.0    	0.17615	0.0	0	0	0	0	0	0.0	0.0	0.0	0.0	0.0	0.0	0.0
7	9	1	1	1	0	0.0    	0.11001	0.0	0	0	0	0	0	0.0	0.0	0.0	0.0	0.0	0.0	0.0
9	10	1	1	1	0	0.03181	0.08450	0.0	0	0	0	0	0	0.0	0.0	0.0	0.0	0.0	0.0	0.0
9	14	1	1	1	0	0.12711	0.27038	0.0	0	0	0	0	0	0.0	0.0	0.0	0.0	0.0	0.0	0.0
10	11	1	1	1	0	0.08205	0.19207	0.0	0	0	0	0	0	0.0	0.0	0.0	0.0	0.0	0.0	0.0
12	13	1	1	1	0	0.22092	0.19988	0.0	0	0	0	0	0	0.0	0.0	0.0	0.0	0.0	0.0	0.0
13	14	1	1	1	0	0.17093	0.34802	0.0	0	0	0	0	0	0.0	0.0	0.0	0.0	0.0	0.0	0.0
-999
-------------------------------------------------
GENERATOR DATA FOLLOWS
-------------------------------------------------
1	615	5.148	2	0.00	0.2396	0.8979	0.2995	0.23	7.4	0.03	0.646	0.646	0.4	0.00	0.033
2	60	6.54	2	0.0031	0.00	1.05	0.1850	0.13	6.1	0.04	0.98	0.36	0.13	0.3	0.099
3	60	6.54	2	0.0031	0.00	1.05	0.1850	0.13	6.1	0.04	0.98	0.36	0.13	0.3	0.099
6	25	5.06	2	0.0014	0.134	1.25	0.232	0.12	4.75	0.06	1.22	0.715	0.12	1.5	0.21
8	25	5.06	2	0.0041	0.134	1.25	0.232	0.12	4.75	0.06	1.22	0.715	0.12	1.5	0.21
-999
-------------------------------------------------
FAULT DATA FOLLOWS	002
-------------------------------------------------
1	1	5	0.5	0.1000
2	2	3	0.1	0.0500
-999
END OF DATA
