MVA base:	100.0
Voltage base:	460
Case id:	9 Bus microgrid test system
--------------------------------------------------
BUS DATA FOLLOWS
Name	FlowA	LossA	Type	FinalV	FinalT	ActLoad	ReaLoad	ActGen	ReacGen	BaseKV	DesV	MaxAct	MaxReac	SCond	SSusc	RemBus
--------------------------------------------------
Bus001	1	1	VT	1.1	0.0000	00	00	0.0000	0.0000	0.0000	0.0000	0.0000	0.0000	0.0000	0.0000	0.0000
Bus002	1	1	PQ	0	0.0000	00	00	6.1538	0.9385	0.0000	0.0000	0.0000	0.0000	0.0000	0.0000	0.0000	
Bus003	1	1	PQ	0	0.0000	80	20	00	0.0000	0.0000	0.0000	0.0000	0.0000	0.0000	0.0000	0.0000
Bus004	2	2	PQ	0	0.0000	40	10	00	0.0000	0.0000	0.0000	0.0000	0.0000	0.0000	0.0000	0.0000
Bus005	2	2	PQ	0	0.0000	00	00	12.3077	1.8769	0.0000	0.0000	0.0000	0.0000	0.0000	0.0000	0.0000
Bus006	2	2	PQ	0	0.0000	00	00	44.6153	7.8538	0.0000	0.0000	0.0000	0.0000	0.0000	0.0000	0.0000
Bus007	3	3	PQ	0	0.0000	60	15	00	0.0000	0.0000	0.0000	0.0000	0.0000	0.0000	0.0000	0.0000
Bus008	3	3	PQ	0	0.0000	00	00	23.0769	3.56923	0.0000	0.0000	0.0000	0.0000	0.0000	0.0000	0.0000
Bus009	3	3	PQ	0	0.0000	00	00	32.3076	5.17692	0.0000	0.0000	0.0000	0.0000	0.0000	0.0000	0.0000
-999
--------------------------------------------------
BRANCH DATA FOLLOWS
TapBus	ZBus	LoadA	LossA	Avail	Type	R	X	gsh	bsh
--------------------------------------------------
Bus003	Bus004	1	1	1	0	0.06068	0.00785	0.0000	0.0200	0	0	0	0	1.0	0.0	0.0	0.0	0.0	0.0	0.0
Bus003	Bus007	1	1	1	0	0.1517	0.01961	0.0000	0.0500	0	0	0	0	1.0	0.0	0.0	0.0	0.0	0.0	0.0
Bus005	Bus004	1	1	1	0	0.00303	0.00039	0.0000	0.0000	0	0	0	0	1.0	0.0	0.0	0.0	0.0	0.0	0.0
Bus006	Bus004	1	1	1	0	0.00303	0.00039	0.0000	0.0000	0	0	0	0	1.0	0.0	0.0	0.0	0.0	0.0	0.0
Bus007	Bus008	1	1	1	0	0.00455	0.00589	0.0000	0.0000	0	0	0	0	1.0	0.0	0.0	0.0	0.0	0.0	0.0
Bus007	Bus009	1	1	1	0	0.00455	0.00589	0.0000	0.0000	0	0	0	0	1.0	0.0	0.0	0.0	0.0	0.0	0.0
Bus003	Bus002	1	1	1	0	0.00303	0.00039	0.0000	0.0000	0	0	0	0	1.0	0.0	0.0	0.0	0.0	0.0	0.0
Bus003	Bus001	1	1	1	1	0.00607	0.00078	0.0000	0.0000	0	0	0	0	1.0	0.0	0.0	0.0	0.0	0.0	0.0
-999
--------------------------------------------------
GENERATOR DATA FOLLOWS
PU BASE:	GENERATOR
BusName	RPower	RVolt	H	D	ra	xL	xd	xPd	xPPd	tPdo	tPPdo	xq	xPq	xPPq	tPqo	tPPqo	Ke	Te	vRef	KPss	Tw	T1	T2	tG	tT	Depth	kQ	kP	P0	Q0	w0	V0
--------------------------------------------------
Bus002	10	460	3.216	0.5	0.07809	0.0000	0.939	0.0437	0.0000	3.708	0.0000	1.974	0.083	0.0000	0.5638	0.0000	10	0.02	1	500	0.01	2	3	0.5	0.5	9	1	1	1	1	1	1
Bus005	20	460	2.272	0.5	0.06096	0.0000	0.898	0.0458	0.0000	5.470	0.0000	1.887	0.079	0.0000	0.8254	0.0000	10	0.02	1	500	0.01	2	3	0.5	1	9	1	1	1	1	1	1
Bus008	37.5	460	2.084	0.5	0.03793	0.0000	0.769	0.0391	0.0000	6.903	0.0000	1.630	0.069	0.0000	0.9716	0.0000	10	0.02	1	500	0.01	2	3	0.5	1.875	9	1	1	1	1	1	1
Bus009	52.5	460	2.450	0.5	0.04491	0.0000	1.110	0.0530	0.0000	9.172	0.0000	2.510	0.090	0.0000	1.134	0.0000	10	0.02	1	500	0.01	2	3	0.5	2.625	9	1	1	1	1	1	1
Bus006	72.5	460	2.450	0.5	0.03461	0.0000	1.130	0.0340	0.0000	12.87	0.0000	2.560	0.080	0.0000	2.349	0.0000	10	0.02	1	500	0.01	2	3	0.5	3.625	9	1	1	1	1	1	1
Bus001	100	460	2.536	0.5	0.02599	0.0000	0.990	0.0467	0.0000	13.08	0.0000	2.250	0.070	0.0000	1.567	0.0000	10	0.02	1	500	0.01	2	3	0.5	5	9	1	1	1	1	1	1
-999
--------------------------------------------------
FAULT DATA FOLLOWS
--------------------------------------------------
-999
END OF DATA
