MVA base:	100.0
Voltage base:	13.8
Case id:	IEEE 14 Bus Test Case
Data taken from Kodsi, Sameh K.M. and Canizares, Claudio A. Modelling and Simulation of IEEE 14 Bus System With FACTs Controllers. Technical report, 2003. Available at <https://www.researchgate.net/profile/Mohamed_Mourad_Lafifi/post/Datasheet_for_5_machine_14_bus_ieee_system2/attachment/59d637fe79197b8077995408/AS%3A395594351824896%401471328451959/download/MODELING+AND+SIMULATION+OF+IEEE+14+BUS+SYSTEM+WITH+FACTS+CONTROLLERS+IEEEBenchmarkTFreport.pdf> (accessed jun 27, 2019).
--------------------------------------------------
BUS DATA FOLLOWS
Name	FlowA	LossA	Type	FinalV	FinalT	ActLoad	ReaLoad	ActGen	ReacGen	BaseKV	DesV	MaxAct	MaxReac	SCond	SSusc	RemBus
--------------------------------------------------
Bus 008	1	1	PV	1.0	0.0	0.0 	0.0 	0 	0	0.0	1.090	24.0	-6.0	0.0	0.0	0
Bus 001	1	1	VT	1.060	0.0	0.0 	0.0 	114.17	-16.9	0.0	1.060	0.0	0.0	0.0	0.0	0
Bus 014	1	1	PQ	1.0	0.0	14.9	5.0 	0.0 	0.0  	0.0	0.0	0.0 	0.0	0.0	0.0	0
Bus 002	1	1	PV	1.045	0.0	21.7	12.7	40.0	0.0 	0.0	1.045	50.0	-40.0	0.0	0.0	0
Bus 004	1	1	PQ	1.0	0.0	47.8	-3.9	0.0 	0.0  	0.0	0.0	0.0 	0.0	0.0	0.0	0
Bus 010	1	1	PQ	1.0	0.0 	9.0 	5.8 	0.0 	0.0  	0.0	0.0	0.0 	0.0	0.0	0.0	0
Bus 005	1	1	PQ	1.0	0.0	7.6 	1.6 	0.0 	0.0  	0.0	0.0	0.0 	0.0	0.0	0.0	0
Bus 006	1	1	PV	1.0	0.0	11.2	7.5 	0.0 	0.0 	0.0	1.070	24.0	-6.0	0.0	0.0	0
Bus 007	1	1	PQ	1.0	0.0	0.0 	0.0 	0.0 	0.0	0.0	0.0	0.0 	0.0	0.0	0.0	0
Bus 009	1	1	PQ	1.0	0.0	29.5	16.6	0.0 	0.0  	0.0	0.0	0.0 	0.0	0.0	0.19	0
Bus 013	1	1	PQ	1.0	0.0	13.8	5.8 	0.0 	0.0  	0.0	0.0	0.0 	0.0	0.0	0.0	0
Bus 011	1	1	PQ	1.0	0.0	3.5 	1.8 	0.0 	0.0  	0.0	0.0	0.0 	0.0	0.0	0.0	0
Bus 012	1	1	PQ	1.0	0.0	6.1 	1.6 	0.0 	0.0  	0.0	0.0	0.0 	0.0	0.0	0.0	0
Bus 003	1	1	PV	1.010	0.0	94.2	19.1	0.0 	0.0 	0.0	1.010	40.0	0.0	0.0	0.0	0
-999
--------------------------------------------------
BRANCH DATA FOLLOWS
TapBus	ZBus	LoadA	LossA	Avail	Type	R	X	gsh	bsh
--------------------------------------------------
Bus 001	Bus 002	1	1	1	0	0.01938	0.05917	0.0000	0.0528	0	0	0	0	1.0	0.0	0.0	0.0	0.0	0.0	0.0
Bus 001	Bus 005	1	1	1	0	0.05403	0.22304	0.0000	0.0438	0	0	0	0	1.0	0.0	0.0	0.0	0.0	0.0	0.0
Bus 002	Bus 003	1	1	1	0	0.04699	0.19797	0.0000	0.0374	0	0	0	0	1.0	0.0	0.0	0.0	0.0	0.0	0.0
Bus 002	Bus 004	1	1	1	0	0.05811	0.17632	0.0000	0.0492	0	0	0	0	1.0	0.0	0.0	0.0	0.0	0.0	0.0
Bus 002	Bus 005	1	1	1	0	0.05695	0.17388	0.0000	0.0340	0	0	0	0	1.0	0.0	0.0	0.0	0.0	0.0	0.0
Bus 003	Bus 004	1	1	1	0	0.06701	0.17103	0.0000	0.0346	0	0	0	0	1.0	0.0	0.0	0.0	0.0	0.0	0.0
Bus 004	Bus 005	1	1	1	0	0.01335	0.04211	0.0000	0.0128	0	0	0	0	1.0	0.0	0.0	0.0	0.0	0.0	0.0
Bus 004	Bus 007	1	1	1	0	0.0	0.20912	0.0000	0.0	0	0	0	0	0.978	0.0	0.0	0.0	0.0	0.0	0.0
Bus 004	Bus 009	1	1	1	0	0.0	0.55618	0.0000	0.0	0	0	0	0	0.969	0.0	0.0	0.0	0.0	0.0	0.0
Bus 005	Bus 006	1	1	1	0	0.0	0.25202	0.0000	0.0	0	0	0	0	0.932	0.0	0.0	0.0	0.0	0.0	0.0
Bus 006	Bus 011	1	1	1	0	0.09498	0.19890	0.0000	0.0	0	0	0	0	1.0	0.0	0.0	0.0	0.0	0.0	0.0
Bus 006	Bus 012	1	1	1	0	0.12291	0.25581	0.0000	0.0	0	0	0	0	1.0	0.0	0.0	0.0	0.0	0.0	0.0
Bus 006	Bus 013	1	1	1	0	0.06615	0.13027	0.0000	0.0	0	0	0	0	1.0	0.0	0.0	0.0	0.0	0.0	0.0
Bus 007	Bus 008	1	1	1	0	0.0    	0.17615	0.0000	0.0	0	0	0	0	1.0	0.0	0.0	0.0	0.0	0.0	0.0
Bus 007	Bus 009	1	1	1	0	0.0    	0.11001	0.0000	0.0	0	0	0	0	1.0	0.0	0.0	0.0	0.0	0.0	0.0
Bus 009	Bus 010	1	1	1	0	0.03181	0.08450	0.0000	0.0	0	0	0	0	1.0	0.0	0.0	0.0	0.0	0.0	0.0
Bus 009	Bus 014	1	1	1	0	0.12711	0.27038	0.0000	0.0	0	0	0	0	1.0	0.0	0.0	0.0	0.0	0.0	0.0
Bus 010	Bus 011	1	1	1	0	0.08205	0.19207	0.0000	0.0	0	0	0	0	1.0	0.0	0.0	0.0	0.0	0.0	0.0
Bus 012	Bus 013	1	1	1	0	0.22092	0.19988	0.0000	0.0	0	0	0	0	1.0	0.0	0.0	0.0	0.0	0.0	0.0
Bus 013	Bus 014	1	1	1	0	0.17093	0.34802	0.0000	0.0	0	0	0	0	1.0	0.0	0.0	0.0	0.0	0.0	0.0
-999
--------------------------------------------------
GENERATOR DATA FOLLOWS
PU BASE:	GENERATOR
BusName	RPower	RVolt	H	D	ra	xL	xd	xPd	xPPd	tPdo	tPPdo	xq	xPq	xPPq	tPqo	tPPqo	Ke	Te	vRef	KPss	Tw	T1	T2	tG	tT	Depth	kQ	kP	P0	Q0	w0	V0
--------------------------------------------------
Bus 002	60	13.8	2.65	2	0.0031	0.00	1.05	0.1850	0.13	6.1	0.04	0.98	0.36	0.13	0.3	0.099	50	0.02	1	200	0.001	2	3	5	0.5	11	1	1	1	0	0	1
Bus 006	25	13.8	3.35	2	0.0041	0.134	1.25	0.232	0.12	4.75	0.06	1.22	0.715	0.12	1.5	0.21	50 	0.02	1	200	0.001	2	3	5	0.5	11	1	1	1	0	0	1
Bus 001	615	13.8	3.95	2	0.00	0.2396	0.8979	0.2995	0.23	7.4	0.03	0.646	0.646	0.4	0.3	0.033	50	0.02	1	200	0.001	2	3	5	0.5	11	1	1	1	0	0	1
Bus 003	60	13.8	2.65	2	0.0031	0.00	1.05	0.1850	0.13	6.1	0.04	0.98	0.36	0.13	0.3	0.099	50	0.02	1	200	0.001	2	3	5	0.5	11	1	1	1	0	0	1
Bus 008	25	13.8	3.35	2	0.0041	0.134	1.25	0.232	0.12	4.75	0.06	1.22	0.715	0.12	1.5	0.21	50	0.02	1	200	0.001	2	3	5	0.5	11	1	1	1	0	0	1
-999
--------------------------------------------------
FAULT DATA FOLLOWS
--------------------------------------------------
1	0	1
8	0	0.01
-999
END OF DATA
