MVA base:	1
Voltage base:	1
Case id:	Test case for parallel PV and synchronous generators.
--------------------------------------------------
BUS DATA FOLLOWS
--------------------------------------------------
Bus002	1	1	UN	1.000	0.000	1.0000	0.4000	0.0000	0.0000	0.0000	0.0000	0.0000	0.0000	0.0000	0.0000	0.0000
Bus003	1	1	UN	1.000	0.000	0.0000	0.0000	0.1000	0.0000	0.0000	0.0000	0.0000	0.0000	0.0000	0.0000	0.0000
Bus004	1	1	UN	1.000	0.000	0.0000	0.0000	0.0000	0.0000	0.0000	0.0000	0.0000	0.0000	0.0000	0.0000	0.0000
Bus001	1	1	VT	1.100	0.000	0.0000 	0.0000 	0.0000 	-0.100	0.0000	0.0000	0.0000	0.0000	0.0000	0.0000	0.0000
Bus005	1	1	UN	1.000	0.000	0.0000	0.0000	0.6000	0.0000	0.0000	0.0000	0.0000	0.0000	0.0000	0.0000	0.0000	
-999
--------------------------------------------------
BRANCH DATA FOLLOWS
--------------------------------------------------
Bus001	Bus002	1	1	1	0	0.1517	0.01961	0.0500	0	0	0	0	0	1.0	0	0	0	0	0	0
Bus002	Bus003	1	1	1	0	0.3034	0.003922	0.0500	0	0	0	0	0	1.0	0	0	0	0	0	0
Bus002	Bus004	1	1	1	0	0.06068	0.00785	0.100	0	0	0	0	0	1.0	0	0	0	0	0	0
Bus004	Bus005	1	1	1	0	0.01219	0.01580	0.000	0	0	0	0	0	1.0	0	0	0	0	0	0
-999
--------------------------------------------------
GENERATOR DATA FOLLOWS
PU BASE:	GENERATOR
--------------------------------------------------
-999
--------------------------------------------------
FAULT DATA FOLLOWS
--------------------------------------------------
-999
END OF DATA
